*HEADING
CalculiX Analysis
*NODE, NSET=NALL
1, 5.0000, 0.0000, 0.0000
2, 5.0000, 0.0000, -5.0000
3, 13.0000, 0.0000, -5.0000
4, 13.0000, 0.0000, -1.0000
5, 5.2500, 0.0000, -0.0312
6, 5.5000, 0.0000, -0.0625
7, 5.7500, 0.0000, -0.0938
8, 6.0000, 0.0000, -0.1250
9, 6.2500, 0.0000, -0.1562
10, 6.5000, 0.0000, -0.1875
11, 6.7500, 0.0000, -0.2188
12, 7.0000, 0.0000, -0.2500
13, 7.2500, 0.0000, -0.2812
14, 7.5000, 0.0000, -0.3125
15, 7.7500, 0.0000, -0.3438
16, 8.0000, 0.0000, -0.3750
17, 8.2500, 0.0000, -0.4062
18, 8.5000, 0.0000, -0.4375
19, 8.7500, 0.0000, -0.4688
20, 9.0000, 0.0000, -0.5000
** ... 673 like lines cut
*ELEMENT, TYPE=S8, ELSET=ESHELLS_S8
1000001, 1, 69, 71, 6, 36, 70, 38, 5
1000002, 6, 71, 73, 8, 38, 72, 40, 7
1000003, 8, 73, 75, 10, 40, 74, 42, 9
1000004, 10, 75, 77, 12, 42, 76, 44, 11
1000005, 12, 77, 79, 14, 44, 78, 46, 13
1000006, 14, 79, 81, 16, 46, 80, 48, 15
1000007, 16, 81, 83, 18, 48, 82, 50, 17
1000008, 18, 83, 85, 20, 50, 84, 52, 19
1000009, 20, 85, 87, 22, 52, 86, 54, 21
1000010, 22, 87, 89, 24, 54, 88, 56, 23
1000011, 24, 89, 91, 26, 56, 90, 58, 25
1000012, 26, 91, 93, 28, 58, 92, 60, 27
1000013, 28, 93, 95, 30, 60, 94, 62, 29
1000014, 30, 95, 97, 32, 62, 96, 64, 31
1000015, 32, 97, 99, 34, 64, 98, 66, 33
1000016, 34, 99, 101, 4, 66, 100, 68, 35
1000017, 69, 135, 137, 71, 102, 136, 104, 70
1000018, 71, 137, 139, 73, 104, 138, 106, 72
1000019, 73, 139, 141, 75, 106, 140, 108, 74
1000020, 75, 141, 143, 77, 108, 142, 110, 76
** ... 140 like lines cut
*ELSET, ELSET=ESHELLS
ESHELLS_S8,
*MATERIAL, NAME=MATERIAL1
*ELASTIC
30000000000.0000, 0.2000
*DENSITY
2446.4832
*SHELL SECTION, ELSET=ESHELLS, MATERIAL=MATERIAL1
0.2000, 5
*BOUNDARY
1, 1, 6, 0.0
2, 1, 6, 0.0
3, 1, 6, 0.0
4, 1, 6, 0.0
*STEP
*STATIC
*DLOAD
1000001, P, 5000.0000
1000002, P, 5000.0000
1000003, P, 5000.0000
1000004, P, 5000.0000
1000005, P, 5000.0000
1000006, P, 5000.0000
1000007, P, 5000.0000
1000008, P, 5000.0000
1000009, P, 5000.0000
1000010, P, 5000.0000
1000011, P, 5000.0000
1000012, P, 5000.0000
1000013, P, 5000.0000
1000014, P, 5000.0000
1000015, P, 5000.0000
1000016, P, 5000.0000
1000017, P, 5000.0000
1000018, P, 5000.0000
1000019, P, 5000.0000
1000020, P, 5000.0000
** ... 140 like lines cut
*NODE PRINT, NSET=NALL
U, RF
*EL PRINT, ELSET=ESHELLS, OUTPUT=3D
S
*END STEP
