*HEADING
CalculiX Analysis
*NODE, NSET=NALL
1, 5.0000, 0.0000, 0.0000
2, 5.0000, 0.0000, -5.0000
3, 13.0000, 0.0000, -5.0000
4, 13.0000, 0.0000, 0.0000
5, 5.5000, 0.0000, 0.0000
6, 6.0000, 0.0000, 0.0000
7, 6.5000, 0.0000, 0.0000
8, 7.0000, 0.0000, 0.0000
9, 7.5000, 0.0000, 0.0000
10, 8.0000, 0.0000, 0.0000
11, 8.5000, 0.0000, 0.0000
12, 9.0000, 0.0000, 0.0000
13, 9.5000, 0.0000, 0.0000
14, 10.0000, 0.0000, 0.0000
15, 10.5000, 0.0000, 0.0000
16, 11.0000, 0.0000, 0.0000
17, 11.5000, 0.0000, 0.0000
18, 12.0000, 0.0000, 0.0000
19, 12.5000, 0.0000, 0.0000
20, 5.0000, 0.0000, -0.5000
** ... 167 like lines cut
*ELEMENT, TYPE=S4, ELSET=ESHELLS
1000001, 1, 20, 21, 5
1000002, 5, 21, 22, 6
1000003, 6, 22, 23, 7
1000004, 7, 23, 24, 8
1000005, 8, 24, 25, 9
1000006, 9, 25, 26, 10
1000007, 10, 26, 27, 11
1000008, 11, 27, 28, 12
1000009, 12, 28, 29, 13
1000010, 13, 29, 30, 14
1000011, 14, 30, 31, 15
1000012, 15, 31, 32, 16
1000013, 16, 32, 33, 17
1000014, 17, 33, 34, 18
1000015, 18, 34, 35, 19
1000016, 19, 35, 36, 4
1000017, 20, 37, 38, 21
1000018, 21, 38, 39, 22
1000019, 22, 39, 40, 23
1000020, 23, 40, 41, 24
** ... 140 like lines cut
*MATERIAL, NAME=MATERIAL1
*ELASTIC
30000000000.0000, 0.2000
*DENSITY
2446.4832
*SHELL SECTION, ELSET=ESHELLS, MATERIAL=MATERIAL1
0.2000, 5
*BOUNDARY
1, 1, 6, 0.0
2, 1, 6, 0.0
3, 1, 6, 0.0
4, 1, 6, 0.0
*STEP
*STATIC
*DLOAD
1000001, P, 5000.0000
1000002, P, 5000.0000
1000003, P, 5000.0000
1000004, P, 5000.0000
1000005, P, 5000.0000
1000006, P, 5000.0000
1000007, P, 5000.0000
1000008, P, 5000.0000
1000009, P, 5000.0000
1000010, P, 5000.0000
1000011, P, 5000.0000
1000012, P, 5000.0000
1000013, P, 5000.0000
1000014, P, 5000.0000
1000015, P, 5000.0000
1000016, P, 5000.0000
1000017, P, 5000.0000
1000018, P, 5000.0000
1000019, P, 5000.0000
1000020, P, 5000.0000
** ... 140 like lines cut
*NODE PRINT, NSET=NALL
U, RF
*EL PRINT, ELSET=ESHELLS, OUTPUT=3D
S
*END STEP
