*HEADING
CalculiX Analysis
*NODE, NSET=NALL
1, 5.0000, 0.0000, 0.0000
2, 13.0000, 0.0000, 0.0000
3, 5.0000, 0.0000, -5.0000
4, 13.0000, 0.0000, -5.0000
5, 19.0000, 0.0000, -5.0000
6, 5.0000, 0.0000, 5.0000
7, 11.0000, 0.0000, 5.0000
*ELEMENT, TYPE=B31, ELSET=EBEAMS_HORX
1, 1, 2
2, 3, 4
3, 5, 4
4, 6, 7
*ELSET, ELSET=EBEAMS
EBEAMS_HORX
*MATERIAL, NAME=MATERIAL1
*ELASTIC
210000000000.0000, 0.3000
*DENSITY
7850.0000
*BEAM SECTION, ELSET=EBEAMS_HORX, MATERIAL=MATERIAL1, SECTION=RECT
0.300000, 0.200000
0.0, 1.0, 0.0
*BOUNDARY
1, 1, 6, 0.0
2, 1, 6, 0.0
3, 1, 6, 0.0
4, 1, 6, 0.0
5, 1, 6, 0.0
6, 1, 6, 0.0
*STEP
*STATIC
*DLOAD
1, P1, -15000.000000
2, P1, -15000.000000
3, P1, -15000.000000
4, P1, -15000.000000
*NODE PRINT, NSET=NALL
U, RF
*EL PRINT, ELSET=EBEAMS
S
*END STEP
