*HEADING
CalculiX Analysis
*NODE, NSET=NALL
1, 0.0000, 0.0000, 0.0000
2, 2.5000, 0.0000, 0.0000
3, 5.0000, 0.0000, 0.0000
4, 7.5000, 0.0000, 0.0000
5, 10.0000, 0.0000, 0.0000
6, 1.2500, 0.0000, 0.0000
7, 3.7500, 0.0000, 0.0000
8, 6.2500, 0.0000, 0.0000
9, 8.7500, 0.0000, 0.0000
*ELEMENT, TYPE=B32, ELSET=EBEAMS_HORX
1, 1, 2, 6
2, 2, 3, 7
3, 3, 4, 8
4, 4, 5, 9
*ELSET, ELSET=EBEAMS
EBEAMS_HORX
*MATERIAL, NAME=MATERIAL1
*ELASTIC
210000000000000.0000, 0.3000
*DENSITY
7850.0000
*BEAM SECTION, ELSET=EBEAMS_HORX, MATERIAL=MATERIAL1, SECTION=RECT
0.300000, 0.200000
0.0, 1.0, 0.0
*BOUNDARY
1, 1, 3, 0.0
5, 1, 3, 0.0
*STEP
*STATIC
*DLOAD
1, P1, -10000.000000
2, P1, -10000.000000
3, P1, -10000.000000
4, P1, -10000.000000
*NODE PRINT, NSET=NALL
U, RF
*NODE PRINT, NSET=NALL
PU
*EL PRINT, ELSET=EBEAMS
S
*EL FILE, SECTION FORCES, OUTPUT=2D
S
*NODE FILE
U
*END STEP
