*HEADING
CalculiX Analysis
*NODE, NSET=NALL
1, 5.0000, 0.0000, 0.0000
2, 5.0000, 0.0000, -5.0000
3, 5.0000, 0.0000, -10.0000
4, 10.0000, 0.0000, -10.0000
5, 10.0000, 0.0000, -5.0000
6, 12.0000, 0.0000, 0.0000
7, 17.0000, 0.0000, 0.0000
8, 21.0000, 0.0000, 0.0000
*ELEMENT, TYPE=B31, ELSET=EBEAMS_HORX
1, 3, 4
2, 2, 5
3, 1, 6
4, 6, 7
5, 7, 8
*ELSET, ELSET=EBEAMS
EBEAMS_HORX
*MATERIAL, NAME=MATERIAL1
*ELASTIC
210000000000.0000, 0.3000
*DENSITY
7850.0000
*BEAM SECTION, ELSET=EBEAMS_HORX, MATERIAL=MATERIAL1, SECTION=RECT
0.300000, 0.200000
0.0, 1.0, 0.0
*BOUNDARY
1, 1, 6, 0.0
2, 1, 6, 0.0
3, 1, 6, 0.0
5, 1, 6, 0.0
6, 1, 6, 0.0
7, 1, 6, 0.0
8, 1, 6, 0.0
*STEP
*STATIC
*DLOAD
1, P1, -25000.000000
2, P1, -25000.000000
3, P1, -25000.000000
4, P1, -25000.000000
5, P1, -25000.000000
*NODE PRINT, NSET=NALL
U, RF
*EL PRINT, ELSET=EBEAMS
S
*END STEP
