*HEADING
CalculiX Analysis
*NODE, NSET=NALL
1, 5.0000, 0.0000, 5.0000
2, 5.0000, 0.0000, 0.0000
3, 5.0000, 0.0000, -5.0000
4, 5.0000, 0.0000, -10.0000
5, 13.0000, 0.0000, -10.0000
6, 13.0000, 0.0000, 5.0000
7, 21.0000, 0.0000, 5.0000
8, 21.0000, 0.0000, -10.0000
9, 21.0000, 0.0000, 0.0000
10, 21.0000, 0.0000, -5.0000
11, 13.0000, 0.0000, 0.0000
12, 13.0000, 0.0000, -5.0000
13, 13.0000, 0.0000, -2.0000
14, 11.0000, 0.0000, -2.0000
15, 11.0000, 0.0000, 0.0000
16, 5.0000, 3.0000, 5.0000
17, 5.0000, 3.0000, 0.0000
18, 5.0000, 3.0000, -5.0000
19, 5.0000, 3.0000, -10.0000
20, 13.0000, 3.0000, -10.0000
** ... 3268 like lines cut
*ELEMENT, TYPE=B31, ELSET=EBEAMS
1, 1, 16
2, 2, 17
3, 3, 18
4, 4, 19
5, 5, 20
6, 6, 21
7, 7, 22
8, 8, 23
9, 9, 24
10, 10, 25
11, 12, 27
12, 16, 31
13, 17, 32
14, 18, 33
15, 19, 34
16, 20, 35
17, 21, 36
18, 22, 37
19, 23, 38
20, 24, 39
** ... 13 like lines cut
*ELEMENT, TYPE=S8, ELSET=ESHELLS_S8
1000001, 16, 124, 126, 62, 91, 125, 93, 61
1000002, 62, 126, 128, 64, 93, 127, 95, 63
1000003, 64, 128, 130, 66, 95, 129, 97, 65
1000004, 66, 130, 132, 68, 97, 131, 99, 67
1000005, 68, 132, 134, 70, 99, 133, 101, 69
1000006, 70, 134, 136, 72, 101, 135, 103, 71
1000007, 72, 136, 138, 74, 103, 137, 105, 73
1000008, 74, 138, 140, 21, 105, 139, 107, 75
1000009, 21, 140, 142, 77, 107, 141, 109, 76
1000010, 77, 142, 144, 79, 109, 143, 111, 78
1000011, 79, 144, 146, 81, 111, 145, 113, 80
1000012, 81, 146, 148, 83, 113, 147, 115, 82
1000013, 83, 148, 150, 85, 115, 149, 117, 84
1000014, 85, 150, 152, 87, 117, 151, 119, 86
1000015, 87, 152, 154, 89, 119, 153, 121, 88
1000016, 89, 154, 156, 22, 121, 155, 123, 90
1000017, 124, 190, 192, 126, 157, 191, 159, 125
1000018, 126, 192, 194, 128, 159, 193, 161, 127
1000019, 128, 194, 196, 130, 161, 195, 163, 129
1000020, 130, 196, 198, 132, 163, 197, 165, 131
** ... 754 like lines cut
*ELSET, ELSET=ESHELLS
ESHELLS_S8,
*MATERIAL, NAME=MATERIAL1
*ELASTIC
30000000000.0000, 0.2000
*DENSITY
2446.4832
*BEAM SECTION, ELSET=EBEAMS, MATERIAL=MATERIAL1, SECTION=RECT
0.2000, 0.3000
0.1, 0.9, 0.1
*SHELL SECTION, ELSET=ESHELLS, MATERIAL=MATERIAL1
0.2000, 5
*BOUNDARY
1, 1, 6, 0.0
2, 1, 6, 0.0
3, 1, 6, 0.0
4, 1, 6, 0.0
5, 1, 6, 0.0
6, 1, 6, 0.0
7, 1, 6, 0.0
8, 1, 6, 0.0
9, 1, 6, 0.0
10, 1, 6, 0.0
11, 1, 6, 0.0
12, 1, 6, 0.0
13, 1, 6, 0.0
14, 1, 6, 0.0
15, 1, 6, 0.0
*STEP
*STATIC
*DLOAD
1000001, P, 15000.0000
1000002, P, 15000.0000
1000003, P, 15000.0000
1000004, P, 15000.0000
1000005, P, 15000.0000
1000006, P, 15000.0000
1000007, P, 15000.0000
1000008, P, 15000.0000
1000009, P, 15000.0000
1000010, P, 15000.0000
1000011, P, 15000.0000
1000012, P, 15000.0000
1000013, P, 15000.0000
1000014, P, 15000.0000
1000015, P, 15000.0000
1000016, P, 15000.0000
1000017, P, 15000.0000
1000018, P, 15000.0000
1000019, P, 15000.0000
1000020, P, 15000.0000
** ... 754 like lines cut
*NODE PRINT, NSET=NALL
U, RF
*EL PRINT, ELSET=EBEAMS
S
*EL PRINT, ELSET=ESHELLS, OUTPUT=3D
S
*END STEP
