*HEADING
CalculiX Analysis
*NODE, NSET=NALL
1, 5.0000, 0.0000, 0.0000
2, 5.0000, 0.0000, -8.0000
3, 13.0000, 0.0000, -8.0000
4, 13.0000, 0.0000, 0.0000
5, 5.0000, 3.0000, 0.0000
6, 5.0000, 3.0000, -8.0000
7, 13.0000, 3.0000, -8.0000
8, 13.0000, 3.0000, 0.0000
9, 5.0000, 6.0000, 0.0000
10, 5.0000, 6.0000, -8.0000
11, 13.0000, 6.0000, -8.0000
12, 13.0000, 6.0000, 0.0000
13, 5.0000, 9.0000, 0.0000
14, 5.0000, 9.0000, -8.0000
15, 13.0000, 9.0000, -8.0000
16, 13.0000, 9.0000, 0.0000
*ELEMENT, TYPE=B31, ELSET=EBEAMS
1, 1, 5
2, 2, 6
3, 3, 7
4, 4, 8
5, 5, 9
6, 6, 10
7, 7, 11
8, 8, 12
9, 9, 13
10, 10, 14
11, 11, 15
12, 12, 16
13, 10, 11
14, 11, 12
15, 12, 9
16, 9, 10
17, 14, 15
18, 15, 16
19, 16, 13
20, 13, 14
** ... 4 like lines cut
*MATERIAL, NAME=MATERIAL1
*ELASTIC
210000000000.0000, 0.3000
*DENSITY
7850.0000
*BEAM SECTION, ELSET=EBEAMS, MATERIAL=MATERIAL1, SECTION=RECT
0.300000, 0.200000
1.0, 0.0, 0.0
*BOUNDARY
1, 1, 6, 0.0
2, 1, 6, 0.0
3, 1, 6, 0.0
4, 1, 6, 0.0
*STEP
*STATIC
*DLOAD
19, P1, -15000.000000
18, P1, -15000.000000
17, P1, -15000.000000
20, P1, -15000.000000
16, P1, -15000.000000
13, P1, -15000.000000
15, P1, -15000.000000
21, P1, -15000.000000
14, P1, -15000.000000
22, P1, -15000.000000
23, P1, -15000.000000
24, P1, -15000.000000
*NODE PRINT, NSET=NALL
U, RF
*EL PRINT, ELSET=EBEAMS
S
*END STEP
