*HEADING
CalculiX Analysis
*NODE, NSET=NALL
1, 5.0000, 0.0000, 5.0000
2, 5.0000, 0.0000, 0.0000
3, 5.0000, 0.0000, -5.0000
4, 5.0000, 0.0000, -10.0000
5, 13.0000, 0.0000, -10.0000
6, 13.0000, 0.0000, 5.0000
7, 21.0000, 0.0000, 5.0000
8, 21.0000, 0.0000, -10.0000
9, 21.0000, 0.0000, 0.0000
10, 21.0000, 0.0000, -5.0000
11, 13.0000, 0.0000, 0.0000
12, 13.0000, 0.0000, -5.0000
13, 13.0000, 0.0000, -2.0000
14, 11.0000, 0.0000, -2.0000
15, 11.0000, 0.0000, 0.0000
16, 5.0000, 3.0000, 5.0000
17, 5.0000, 3.0000, 0.0000
18, 5.0000, 3.0000, -5.0000
19, 5.0000, 3.0000, -10.0000
20, 13.0000, 3.0000, -10.0000
** ... 602 like lines cut
*ELEMENT, TYPE=B31, ELSET=EBEAMS
1, 1, 16
2, 2, 17
3, 3, 18
4, 4, 19
5, 5, 20
6, 6, 21
7, 7, 22
8, 8, 23
9, 9, 24
10, 10, 25
11, 12, 27
12, 16, 31
13, 17, 32
14, 18, 33
15, 19, 34
16, 20, 35
17, 21, 36
18, 22, 37
19, 23, 38
20, 24, 39
** ... 13 like lines cut
*ELEMENT, TYPE=S4, ELSET=ESHELLS_S4
1000001, 31, 75, 76, 61
1000002, 61, 76, 77, 62
1000003, 62, 77, 78, 63
1000004, 63, 78, 79, 64
1000005, 64, 79, 80, 65
1000006, 65, 80, 81, 66
1000007, 66, 81, 82, 67
1000008, 67, 82, 83, 36
1000009, 36, 83, 84, 68
1000010, 68, 84, 85, 69
1000011, 69, 85, 86, 70
1000012, 70, 86, 87, 71
1000013, 71, 87, 88, 72
1000014, 72, 88, 89, 73
1000015, 73, 89, 90, 74
1000016, 74, 90, 91, 37
1000017, 75, 92, 93, 76
1000018, 76, 93, 94, 77
1000019, 77, 94, 95, 78
1000020, 78, 95, 96, 79
** ... 514 like lines cut
*ELSET, ELSET=ESHELLS
ESHELLS_S4,
*MATERIAL, NAME=MATERIAL1
*ELASTIC
210000000000.0000, 0.3000
*DENSITY
8002.0387
*BEAM SECTION, ELSET=EBEAMS, MATERIAL=MATERIAL1, SECTION=RECT
0.200000, 0.300000
1.0, 0.0, 0.0
*SHELL SECTION, ELSET=ESHELLS, MATERIAL=MATERIAL1
0.2000, 5
*BOUNDARY
1, 1, 6, 0.0
2, 1, 6, 0.0
3, 1, 6, 0.0
4, 1, 6, 0.0
5, 1, 6, 0.0
6, 1, 6, 0.0
7, 1, 6, 0.0
8, 1, 6, 0.0
9, 1, 6, 0.0
10, 1, 6, 0.0
11, 1, 6, 0.0
12, 1, 6, 0.0
13, 1, 6, 0.0
14, 1, 6, 0.0
15, 1, 6, 0.0
*STEP
*STATIC
*DLOAD
1000001, P, 5000.0000
1000002, P, 5000.0000
1000003, P, 5000.0000
1000004, P, 5000.0000
1000005, P, 5000.0000
1000006, P, 5000.0000
1000007, P, 5000.0000
1000008, P, 5000.0000
1000009, P, 5000.0000
1000010, P, 5000.0000
1000011, P, 5000.0000
1000012, P, 5000.0000
1000013, P, 5000.0000
1000014, P, 5000.0000
1000015, P, 5000.0000
1000016, P, 5000.0000
1000017, P, 5000.0000
1000018, P, 5000.0000
1000019, P, 5000.0000
1000020, P, 5000.0000
** ... 514 like lines cut
*NODE PRINT, NSET=NALL
U, RF
*EL PRINT, ELSET=EBEAMS
S
*EL PRINT, ELSET=ESHELLS
S
*END STEP
