*HEADING
CalculiX Analysis
*NODE, NSET=NALL
1, -15.0000, 0.0000, -10.0000
2, -15.0000, 0.0000, -15.0000
3, -15.0000, 0.0000, -20.0000
4, -7.0000, 0.0000, -20.0000
5, 0.0000, 0.0000, -20.0000
6, 8.0000, 0.0000, -20.0000
7, 15.0000, 0.0000, -20.0000
8, 22.0000, 0.0000, -15.0000
9, 22.0000, 0.0000, -5.0000
10, 15.0000, 0.0000, -5.0000
11, 8.0000, 0.0000, -5.0000
12, 0.0000, 0.0000, -5.0000
13, -7.0000, 0.0000, -5.0000
14, -15.0000, 0.0000, -5.0000
15, -7.0000, 0.0000, -13.0000
16, 0.0000, 0.0000, -13.0000
17, 8.0000, 0.0000, -13.0000
18, 15.0000, 0.0000, -13.0000
19, 2.0000, 0.0000, -13.0000
20, 2.0000, 0.0000, -10.0000
** ... 2252 like lines cut
*ELEMENT, TYPE=B31, ELSET=EBEAMS
1, 3, 24
2, 4, 25
3, 5, 26
4, 6, 27
5, 7, 28
6, 8, 29
7, 9, 30
8, 10, 31
9, 11, 32
10, 12, 33
11, 13, 34
12, 14, 35
13, 15, 36
14, 18, 37
15, 24, 38
16, 25, 39
17, 26, 40
18, 27, 41
19, 28, 42
20, 29, 43
** ... 50 like lines cut
*ELEMENT, TYPE=S4, ELSET=ESHELLS_S4
1000001, 16, 118, 119, 103
1000002, 103, 119, 120, 104
1000003, 104, 120, 121, 105
1000004, 105, 121, 122, 106
1000005, 106, 122, 123, 107
1000006, 107, 123, 124, 108
1000007, 108, 124, 125, 109
1000008, 109, 125, 126, 110
1000009, 110, 126, 127, 111
1000010, 111, 127, 128, 112
1000011, 112, 128, 129, 113
1000012, 113, 129, 130, 114
1000013, 114, 130, 131, 115
1000014, 115, 131, 132, 116
1000015, 116, 132, 133, 117
1000016, 117, 133, 134, 95
1000017, 118, 135, 136, 119
1000018, 119, 136, 137, 120
1000019, 120, 137, 138, 121
1000020, 121, 138, 139, 122
** ... 1920 like lines cut
*ELSET, ELSET=ESHELLS
ESHELLS_S4,
*MATERIAL, NAME=MATERIAL1
*ELASTIC
30000000000.0000, 0.2000
*DENSITY
2446.4832
*BEAM SECTION, ELSET=EBEAMS, MATERIAL=MATERIAL1, SECTION=RECT
0.2000, 0.3000
0.1, 0.9, 0.1
*SHELL SECTION, ELSET=ESHELLS, MATERIAL=MATERIAL1
0.2000, 5
*BOUNDARY
1, 1, 6, 0.0
2, 1, 6, 0.0
3, 1, 6, 0.0
4, 1, 6, 0.0
5, 1, 6, 0.0
6, 1, 6, 0.0
7, 1, 6, 0.0
8, 1, 6, 0.0
9, 1, 6, 0.0
10, 1, 6, 0.0
11, 1, 6, 0.0
12, 1, 6, 0.0
13, 1, 6, 0.0
14, 1, 6, 0.0
15, 1, 6, 0.0
16, 1, 6, 0.0
17, 1, 6, 0.0
18, 1, 6, 0.0
19, 1, 6, 0.0
20, 1, 6, 0.0
21, 1, 6, 0.0
22, 1, 6, 0.0
23, 1, 6, 0.0
*STEP
*STATIC
*DLOAD
1000001, P, 15000.0000
1000001, P, 15000.0000
1000002, P, 15000.0000
1000002, P, 15000.0000
1000003, P, 15000.0000
1000003, P, 15000.0000
1000004, P, 15000.0000
1000004, P, 15000.0000
1000005, P, 15000.0000
1000005, P, 15000.0000
1000006, P, 15000.0000
1000006, P, 15000.0000
1000007, P, 15000.0000
1000007, P, 15000.0000
1000008, P, 15000.0000
1000008, P, 15000.0000
1000009, P, 15000.0000
1000009, P, 15000.0000
1000010, P, 15000.0000
1000010, P, 15000.0000
** ... 3860 like lines cut
*NODE PRINT, NSET=NALL
U, RF
*EL PRINT, ELSET=EBEAMS
SF
*EL PRINT, ELSET=EBEAMS
S
*EL PRINT, ELSET=ESHELLS, OUTPUT=3D
S
*END STEP
