*HEADING
CalculiX Analysis
*NODE, NSET=NALL
1, 5.0000, 0.0000, 0.0000
2, 13.0000, 0.0000, 0.0000
*ELEMENT, TYPE=B31, ELSET=EBEAMS
1, 1, 2
*MATERIAL, NAME=MATERIAL1
*ELASTIC
210000000000.0000, 0.3000
*DENSITY
7850.0000
*BEAM SECTION, ELSET=EBEAMS, MATERIAL=MATERIAL1, SECTION=RECT
0.300000, 0.200000
0.0, 1.0, 0.0
*BOUNDARY
1, 1, 6, 0.0
2, 1, 6, 0.0
*STEP
*STATIC
*DLOAD
1, P1, -10000.000000
*NODE PRINT, NSET=NALL
U, RF
*EL PRINT, ELSET=EBEAMS
S
*END STEP
