*HEADING
Simply Supported Beam - Proper Pinned using COUPLING
** Uses EQUATION to couple only translations (1-3) to a fixed ground node
** Leaves rotations (4-6) free
**
*NODE, NSET=NALL
** Beam nodes
1, 0.0, 0.0, 0.0
2, 2.5, 0.0, 0.0
3, 5.0, 0.0, 0.0
4, 7.5, 0.0, 0.0
5, 10.0, 0.0, 0.0
6, 1.25, 0.0, 0.0
7, 3.75, 0.0, 0.0
8, 6.25, 0.0, 0.0
9, 8.75, 0.0, 0.0
** Ground nodes for supports
100, 0.0, 0.0, 0.0
101, 10.0, 0.0, 0.0
**
** B32 elements
*ELEMENT, TYPE=B32, ELSET=EBEAMS
1, 1, 2, 6
2, 2, 3, 7
3, 3, 4, 8
4, 4, 5, 9
**
*MATERIAL, NAME=STEEL
*ELASTIC
210e9, 0.3
*DENSITY
7850.0
**
*BEAM SECTION, ELSET=EBEAMS, MATERIAL=STEEL, SECTION=RECT
0.3, 0.2
0.0, 1.0, 0.0
**
** Fix ground nodes completely
*BOUNDARY
100, 1, 3, 0.0
101, 1, 3, 0.0
**
** Couple beam nodes to ground nodes (translations only)
** Node 1 coupled to ground node 100
*EQUATION
2
1, 1, 1.0, 100, 1, -1.0
*EQUATION
2
1, 2, 1.0, 100, 2, -1.0
*EQUATION
2
1, 3, 1.0, 100, 3, -1.0
**
** Node 5 coupled to ground node 101
*EQUATION
2
5, 1, 1.0, 101, 1, -1.0
*EQUATION
2
5, 2, 1.0, 101, 2, -1.0
*EQUATION
2
5, 3, 1.0, 101, 3, -1.0
**
*STEP
*STATIC
**
*DLOAD
1, P1, -10000.0
2, P1, -10000.0
3, P1, -10000.0
4, P1, -10000.0
**
*EL FILE, SECTION FORCES, OUTPUT=2D
S
*NODE FILE
U
**
*NODE PRINT, NSET=NALL
U, RF
*END STEP
