*HEADING
Simply Supported Beam - Pinned at both ends (10 elements)
** More elements for better accuracy
**
*NODE, NSET=NALL
1, 0.0, 0.0, 0.0
2, 1.0, 0.0, 0.0
3, 2.0, 0.0, 0.0
4, 3.0, 0.0, 0.0
5, 4.0, 0.0, 0.0
6, 5.0, 0.0, 0.0
7, 6.0, 0.0, 0.0
8, 7.0, 0.0, 0.0
9, 8.0, 0.0, 0.0
10, 9.0, 0.0, 0.0
11, 10.0, 0.0, 0.0
12, 0.5, 0.0, 0.0
13, 1.5, 0.0, 0.0
14, 2.5, 0.0, 0.0
15, 3.5, 0.0, 0.0
16, 4.5, 0.0, 0.0
17, 5.5, 0.0, 0.0
18, 6.5, 0.0, 0.0
19, 7.5, 0.0, 0.0
20, 8.5, 0.0, 0.0
21, 9.5, 0.0, 0.0
**
** B32 elements: nodes are end1, end2, midpoint
*ELEMENT, TYPE=B32, ELSET=EBEAMS
1, 1, 2, 12
2, 2, 3, 13
3, 3, 4, 14
4, 4, 5, 15
5, 5, 6, 16
6, 6, 7, 17
7, 7, 8, 18
8, 8, 9, 19
9, 9, 10, 20
10, 10, 11, 21
**
*MATERIAL, NAME=STEEL
*ELASTIC
210e9, 0.3
*DENSITY
7850.0
**
*BEAM SECTION, ELSET=EBEAMS, MATERIAL=STEEL, SECTION=RECT
0.3, 0.2
0.0, 1.0, 0.0
**
** PINNED SUPPORTS
*BOUNDARY
1, 1, 3, 0.0
11, 1, 3, 0.0
**
*STEP
*STATIC
*DLOAD
1, P1, -10000.0
2, P1, -10000.0
3, P1, -10000.0
4, P1, -10000.0
5, P1, -10000.0
6, P1, -10000.0
7, P1, -10000.0
8, P1, -10000.0
9, P1, -10000.0
10, P1, -10000.0
**
*EL FILE, SECTION FORCES, OUTPUT=2D
S
*END STEP
