*HEADING
Simply Supported Beam - Pinned at both ends
** Beam from x=0 to x=10, with UDL load
** Should show M=0 at ends, max M at midspan
**
*NODE, NSET=NALL
1, 0.0000, 0.0000, 0.0000
2, 5.0000, 0.0000, 0.0000
3, 10.0000, 0.0000, 0.0000
**
*ELEMENT, TYPE=B32, ELSET=EBEAMS
1, 1, 3, 2
**
*MATERIAL, NAME=STEEL
*ELASTIC
210e9, 0.3
*DENSITY
7850.0
**
*BEAM SECTION, ELSET=EBEAMS, MATERIAL=STEEL, SECTION=RECT
0.3, 0.2
0.0, 1.0, 0.0
**
** PINNED SUPPORTS - Only fix translations (DOF 1-3), NOT rotations (DOF 4-6)
*BOUNDARY
1, 1, 3, 0.0
3, 1, 3, 0.0
**
*STEP
*STATIC
**
** Point load at midspan (node 2)
*CLOAD
2, 2, -10000.0
**
** Output requests
*NODE FILE
U
*EL FILE, SECTION FORCES, OUTPUT=2D
S
**
*NODE PRINT, NSET=NALL
U, RF
*EL PRINT, ELSET=EBEAMS
S
**
*END STEP
