*HEADING
CalculiX Analysis
*NODE, NSET=NALL
1, 0.0000, 0.0000, 0.0000
2, 0.5000, 0.0000, 0.0000
3, 1.0000, 0.0000, 0.0000
4, 1.5000, 0.0000, 0.0000
5, 2.0000, 0.0000, 0.0000
6, 2.5000, 0.0000, 0.0000
7, 3.0000, 0.0000, 0.0000
8, 3.5000, 0.0000, 0.0000
9, 4.0000, 0.0000, 0.0000
10, 4.5000, 0.0000, 0.0000
11, 5.0000, 0.0000, 0.0000
12, 5.5000, 0.0000, 0.0000
13, 6.0000, 0.0000, 0.0000
14, 6.5000, 0.0000, 0.0000
15, 7.0000, 0.0000, 0.0000
16, 7.5000, 0.0000, 0.0000
17, 8.0000, 0.0000, 0.0000
18, 0.0000, 0.0000, 0.5000
19, 0.5000, 0.0000, 0.5000
20, 1.0000, 0.0000, 0.5000
** ... 167 like lines cut
*ELEMENT, TYPE=S4, ELSET=ESHELLS
1000001, 1, 2, 19, 18
1000002, 2, 3, 20, 19
1000003, 3, 4, 21, 20
1000004, 4, 5, 22, 21
1000005, 5, 6, 23, 22
1000006, 6, 7, 24, 23
1000007, 7, 8, 25, 24
1000008, 8, 9, 26, 25
1000009, 9, 10, 27, 26
1000010, 10, 11, 28, 27
1000011, 11, 12, 29, 28
1000012, 12, 13, 30, 29
1000013, 13, 14, 31, 30
1000014, 14, 15, 32, 31
1000015, 15, 16, 33, 32
1000016, 16, 17, 34, 33
1000017, 18, 19, 36, 35
1000018, 19, 20, 37, 36
1000019, 20, 21, 38, 37
1000020, 21, 22, 39, 38
** ... 140 like lines cut
*MATERIAL, NAME=MATERIAL1
*ELASTIC
210000000000.0000, 0.3000
*DENSITY
8002.0387
*SHELL SECTION, ELSET=ESHELLS, MATERIAL=MATERIAL1
0.2000, 5
*BOUNDARY
1, 1, 3, 0.0
17, 2, 2, 0.0
17, 3, 3, 0.0
171, 2, 2, 0.0
187, 2, 2, 0.0
*STEP
*STATIC
*DLOAD
1000001, P, 5000.0000
1000002, P, 5000.0000
1000003, P, 5000.0000
1000004, P, 5000.0000
1000005, P, 5000.0000
1000006, P, 5000.0000
1000007, P, 5000.0000
1000008, P, 5000.0000
1000009, P, 5000.0000
1000010, P, 5000.0000
1000011, P, 5000.0000
1000012, P, 5000.0000
1000013, P, 5000.0000
1000014, P, 5000.0000
1000015, P, 5000.0000
1000016, P, 5000.0000
1000017, P, 5000.0000
1000018, P, 5000.0000
1000019, P, 5000.0000
1000020, P, 5000.0000
** ... 140 like lines cut
*NODE PRINT, NSET=NALL
U, RF
*EL PRINT, ELSET=ESHELLS, OUTPUT=3D
S
*END STEP
